* netlist generated with vector fitting poles and residues

.subckt total_network node_1 node_2 node_3 node_4 
X_11 node_1 0 yp11
X_12 node_1 node_2 yp12
X_13 node_1 node_3 yp13
X_14 node_1 node_4 yp14
X_22 node_2 0 yp22
X_23 node_2 node_3 yp23
X_24 node_2 node_4 yp24
X_33 node_3 0 yp33
X_34 node_3 node_4 yp34
X_44 node_4 0 yp44
.ends


* Y'11
.subckt yp11 node_1 0
* Branch 0
Rabr0 node_1 netRa0 326.61057146937475
Lbr0 netRa0 netL0 -5.117381476432755e-13
Rbbr0 netL0 0 -2200.7948202195016
Cbr0 netL0 0 -4.80803259443911e-19

* Branch 1
Rabr1 node_1 netRa1 222.5438694403912
Lbr1 netRa1 netL1 -4.3751691175770625e-13
Rbbr1 netL1 0 -2098.2632006837534
Cbr1 netL1 0 -5.869597624192263e-19

* Branch 2
Rabr2 node_1 netRa2 142.47643687284696
Lbr2 netRa2 netL2 -3.4035622605774203e-13
Rbbr2 netL2 0 -1809.8816661859219
Cbr2 netL2 0 -7.700609982977301e-19

* Branch 3
Rabr3 node_1 netRa3 139.02936140865506
Lbr3 netRa3 netL3 -4.901189529746543e-13
Rbbr3 netL3 0 -3075.9955135807954
Cbr3 netL3 0 -5.628061455421911e-19

* Branch 4
Rabr4 node_1 netRa4 -333.6325910193248
Lbr4 netRa4 netL4 -6.452279938227414e-13
Rbbr4 netL4 0 9253.363871967975
Cbr4 netL4 0 -4.347845159698791e-19

* Branch 5
Rabr5 node_1 netRa5 -10369272.719332574
Lbr5 netRa5 netL5 7.245707165438178e-11
Rbbr5 netL5 0 10370990.502703767
Cbr5 netL5 0 6.726862004870602e-25

* Branch 6
Rabr6 node_1 netRa6 193.04356122351857
Lbr6 netRa6 netL6 3.1980595716464953e-13
Rbbr6 netL6 0 -2687.5383501761826
Cbr6 netL6 0 8.6979661357187e-19

* Branch 7
Rabr7 node_1 netRa7 59280.70426488376
Lbr7 netRa7 netL7 2.050982390663445e-12
Rbbr7 netL7 0 -59511.583691876716
Cbr7 netL7 0 5.833565020857678e-22

* Branch 8
Rabr8 node_1 netRa8 -1823.319412902136
Lbr8 netRa8 netL8 -2.154908265435155e-12
Rbbr8 netL8 0 11168.34584993483
Cbr8 netL8 0 -1.1413185330448228e-19

* Branch 9
Rabr9 node_1 netRa9 -5049979.818094138
Lbr9 netRa9 netL9 -4.375765037755529e-11
Rbbr9 netL9 0 5051220.249074346
Cbr9 netL9 0 -1.7161651642923957e-24

* Branch 10
Rabr10 node_1 netRa10 -1144398.2386926573
Lbr10 netRa10 netL10 -4.9088653209177065e-11
Rbbr10 netL10 0 1145805.7453336774
Cbr10 netL10 0 -3.7507957114850805e-23

* Branch 11
Rabr11 node_1 netRa11 20603.887876752688
Lbr11 netRa11 netL11 -4.564807896757151e-12
Rbbr11 netL11 0 -23264.007296597272
Cbr11 netL11 0 -9.441268976294865e-21

* Branch 12
Rabr12 node_1 netRa12 -46736.78260657894
Lbr12 netRa12 netL12 -1.4260555523559178e-11
Rbbr12 netL12 0 49688.63935857222
Cbr12 netL12 0 -6.211598197261353e-21

* Branch 13
Rabr13 node_1 netRa13 -27602.921503384157
Lbr13 netRa13 netL13 1.2919029998912039e-11
Rbbr13 netL13 0 31608.410593550707
Cbr13 netL13 0 1.455668465068999e-20

* Branch 14
Rabr14 node_1 netRa14 -1777.6683249726939
Lbr14 netRa14 netL14 1.4867687118991373e-12
Rbbr14 netL14 0 5515.356095693521
Cbr14 netL14 0 1.472828411570406e-19

* Branch 15
Rabr15 node_1 netRa15 -341.58694345764366
Lbr15 netRa15 netL15 -4.003741529026911e-13
Rbbr15 netL15 0 1650.3563542423067
Cbr15 netL15 0 -7.405338810746267e-19

* Branch 16
Rabr16 node_1 netRa16 124100.31787191561
Lbr16 netRa16 netL16 -1.0956067466657093e-11
Rbbr16 netL16 0 -126650.89549764723
Cbr16 netL16 0 -6.950601382966993e-22

* Branch 17
Rabr17 node_1 netRa17 58.424673291437344
Lbr17 netRa17 netL17 7.594594201968031e-12
Rbbr17 netL17 0 208118.91488447445
Cbr17 netL17 0 1.952157727377674e-19

* Branch 18
Rabr18 node_1 netRa18 52422.7456705161
Lbr18 netRa18 netL18 -1.3528658028606826e-11
Rbbr18 netL18 0 -62078.190715320525
Cbr18 netL18 0 -4.123842069669665e-21

* Branch 19
Rabr19 node_1 netRa19 185083.38969726217
Lbr19 netRa19 netL19 -1.2251434122690868e-11
Rbbr19 netL19 0 -187225.85252011352
Cbr19 netL19 0 -3.5282736784601276e-22

* Branch 20
Rabr20 node_1 netRa20 3787.448115736157
Lbr20 netRa20 netL20 1.8736448074001828e-12
Rbbr20 netL20 0 -6286.08933929191
Cbr20 netL20 0 7.989568336804851e-20

* Branch 21
Rabr21 node_1 netRa21 -1814.4320964489339
Lbr21 netRa21 netL21 3.8052156196048495e-12
Rbbr21 netL21 0 24496.215352854837
Cbr21 netL21 0 8.053778925672055e-20

* Branch 22
Rabr22 node_1 netRa22 -350.3376052935576
Lbr22 netRa22 netL22 4.136531853416352e-12
Rbbr22 netL22 0 107341.26305336072
Cbr22 netL22 0 8.142573760492006e-20

* Branch 23
Rabr23 node_1 netRa23 -276.73200264299714
Lbr23 netRa23 netL23 -8.984847766876161e-13
Rbbr23 netL23 0 2405.497093098574
Cbr23 netL23 0 -1.48704375532406e-18

* Branch 24
Rabr24 node_1 netRa24 17273.91172599369
Lbr24 netRa24 netL24 1.0588943296080566e-11
Rbbr24 netL24 0 -36238.36734656803
Cbr24 netL24 0 1.7195681343448043e-20

* Branch 25
Rabr25 node_1 netRa25 -112.74018590543525
Lbr25 netRa25 netL25 2.040304706451264e-12
Rbbr25 netL25 0 78913.27882042492
Cbr25 netL25 0 1.553991209051218e-19

* Branch 26
Rabr26 node_1 netRa26 461.4730849100955
Lbr26 netRa26 netL26 5.612857163850537e-13
Rbbr26 netL26 0 -2306.750070354589
Cbr26 netL26 0 5.441595157630696e-19

* Branch 27
Rabr27 node_1 netRa27 -25357872.322337534
Lbr27 netRa27 netL27 -1.4252430511442698e-10
Rbbr27 netL27 0 25359981.75436609
Cbr27 netL27 0 -2.216606863487908e-25

* Branch 28
Rabr28 node_1 netRa28 2200.7989479536436
Lbr28 netRa28 netL28 1.5330269510144953e-12
Rbbr28 netL28 0 -4975.040272513325
Cbr28 netL28 0 1.423715958862726e-19

* Branch 29
Rabr29 node_1 netRa29 17262.635173079467
Lbr29 netRa29 netL29 5.4273271111523705e-12
Rbbr29 netL29 0 -19993.918390318202
Cbr29 netL29 0 1.5829936686277327e-20

* Branch 30
Rabr30 node_1 netRa30 520.5020402560228
Lbr30 netRa30 netL30 7.352860081171223e-13
Rbbr30 netL30 0 -2337.9042233404425
Cbr30 netL30 0 6.2247228851436495e-19

* Branch 31
Rabr31 node_1 netRa31 -5918.902399224241
Lbr31 netRa31 netL31 3.2579457027520616e-12
Rbbr31 netL31 0 7137.3293389943765
Cbr31 netL31 0 7.625914175992438e-20

* Branch 32
Rabr32 node_1 netRa32 44853.56595508354
Lbr32 netRa32 netL32 -8.62110198404899e-12
Rbbr32 netL32 0 -48182.467784042165
Cbr32 netL32 0 -3.973646533697732e-21

* Branch 33
Rabr33 node_1 netRa33 14130.481723862635
Lbr33 netRa33 netL33 2.8036112979619105e-12
Rbbr33 netL33 0 -15431.810975632883
Cbr33 netL33 0 1.2907683605629048e-20

* Branch 34
Rabr34 node_1 netRa34 -161.01256982311358
Lbr34 netRa34 netL34 7.826308362812545e-13
Rbbr34 netL34 0 5917.735542519768
Cbr34 netL34 0 7.508164121500441e-19

* Branch 35
Rabr35 node_1 netRa35 31017.49654827111
Lbr35 netRa35 netL35 4.723430356299044e-12
Rbbr35 netL35 0 -32740.463315814537
Cbr35 netL35 0 4.66480860233561e-21

* Branch 36
Rabr36 node_1 netRa36 -2273.5704724688712
Lbr36 netRa36 netL36 -2.803348864585759e-12
Rbbr36 netL36 0 4478.0301923137595
Cbr36 netL36 0 -2.8194038261707407e-19

* Branch 37
Rabr37 node_1 netRa37 51448.13306862744
Lbr37 netRa37 netL37 6.15634444797698e-12
Rbbr37 netL37 0 -52899.589340679224
Cbr37 netL37 0 2.2671406726640717e-21

* Branch 38
Rabr38 node_1 netRa38 700.3628370330492
Lbr38 netRa38 netL38 9.100956924364867e-13
Rbbr38 netL38 0 -2580.3616137400554
Cbr38 netL38 0 5.161446231093987e-19

* Branch 39
Rabr39 node_1 netRa39 -27890.66605062626
Lbr39 netRa39 netL39 7.1908794233927366e-12
Rbbr39 netL39 0 30403.7017298787
Cbr39 netL39 0 8.441243248499901e-21

* Branch 40
Rabr40 node_1 netRa40 -1081.5901546583084
Lbr40 netRa40 netL40 1.068276180864409e-12
Rbbr40 netL40 0 2396.826720344499
Cbr40 netL40 0 4.0516894578742746e-19

* Branch 41
Rabr41 node_1 netRa41 177865.4572332121
Lbr41 netRa41 netL41 -1.594616468664118e-10
Rbbr41 netL41 0 -654752.9508268264
Cbr41 netL41 0 -1.3484694708046026e-21

* Branch 42
Rabr42 node_1 netRa42 3943.5914502195938
Lbr42 netRa42 netL42 3.5514578803468695e-12
Rbbr42 netL42 0 -8265.361280645271
Cbr42 netL42 0 1.10645702705794e-19

* Branch 43
Rabr43 node_1 netRa43 35662.20017553108
Lbr43 netRa43 netL43 6.480447620630142e-12
Rbbr43 netL43 0 -38604.2202882075
Cbr43 netL43 0 4.721624751407409e-21

* Branch 44
Rabr44 node_1 netRa44 224.2770737519292
Lbr44 netRa44 netL44 8.698323702567144e-13
Rbbr44 netL44 0 -5367.716455632127
Cbr44 netL44 0 7.727511832800663e-19

* Branch 45
Rabr45 node_1 netRa45 -446.54374225664026
Lbr45 netRa45 netL45 8.591095508189552e-13
Rbbr45 netL45 0 2880.811467789878
Cbr45 netL45 0 6.471012361299801e-19

* Branch 46
Rabr46 node_1 netRa46 208.69141063802607
Lbr46 netRa46 netL46 9.296485377009404e-13
Rbbr46 netL46 0 -6002.348540280618
Cbr46 netL46 0 8.005268316411923e-19

* Branch 47
Rabr47 node_1 netRa47 2080.578033111982
Lbr47 netRa47 netL47 1.1033096538579315e-12
Rbbr47 netL47 0 -3395.238266815175
Cbr47 netL47 0 1.5751802847288386e-19

* Branch 48
Rabr48 node_1 netRa48 101.40059339867325
Lbr48 netRa48 netL48 7.875093511254381e-13
Rbbr48 netL48 0 -8273.936325682202
Cbr48 netL48 0 1.0701843774940229e-18

* Branch 49
Rabr49 node_1 netRa49 182802.47652732432
Lbr49 netRa49 netL49 2.1483978663561614e-11
Rbbr49 netL49 0 -186479.76279242104
Cbr49 netL49 0 6.314064488193606e-22

* Branch 50
Rabr50 node_1 netRa50 10237.89104255574
Lbr50 netRa50 netL50 1.2109734378165194e-11
Rbbr50 netL50 0 -16510.67837595354
Cbr50 netL50 0 7.297816748530808e-20

* Branch 51
Rabr51 node_1 netRa51 -106610326.97515523
Lbr51 netRa51 netL51 4.900958605546951e-10
Rbbr51 netL51 0 106614983.99205525
Cbr51 netL51 0 4.3115438406904124e-26

* Branch 52
Rabr52 node_1 netRa52 -781.7371189632361
Lbr52 netRa52 netL52 1.2347670226061218e-12
Rbbr52 netL52 0 3437.2189256176594
Cbr52 netL52 0 4.490685894396322e-19

* Branch 53
Rabr53 node_1 netRa53 -254.50325956569117
Lbr53 netRa53 netL53 6.261594846643179e-13
Rbbr53 netL53 0 3397.2347821377243
Cbr53 netL53 0 6.991525960473434e-19

* Branch 54
Rabr54 node_1 netRa54 -751157.6034091921
Lbr54 netRa54 netL54 3.838334509194316e-11
Rbbr54 netL54 0 754343.682771699
Cbr54 netL54 0 6.768944637103557e-23

* Branch 55
Rabr55 node_1 netRa55 12371.213557069053
Lbr55 netRa55 netL55 8.32304830062498e-12
Rbbr55 netL55 0 -19178.99516816798
Cbr55 netL55 0 3.5420660802418403e-20

* Branch 56
Rabr56 node_1 netRa56 -1071894.1614082514
Lbr56 netRa56 netL56 -4.58086909450481e-11
Rbbr56 netL56 0 1074317.5576580246
Cbr56 netL56 0 -3.9803957824100895e-23

* Branch 57
Rabr57 node_1 netRa57 -37133560.51184464
Lbr57 netRa57 netL57 -3.5090762566176124e-10
Rbbr57 netL57 0 37139432.90770302
Cbr57 netL57 0 -2.5447728645126814e-25

* Branch 58
Rabr58 node_1 netRa58 791880.6371782444
Lbr58 netRa58 netL58 -3.267906546732189e-11
Rbbr58 netL58 0 -794213.3367142725
Cbr58 netL58 0 -5.193012445957823e-23

* Branch 59
Rabr59 node_1 netRa59 -15431.678529042287
Lbr59 netRa59 netL59 5.373965898318151e-12
Rbbr59 netL59 0 18199.718750608623
Cbr59 netL59 0 1.9041493085078785e-20

* Branch 60
Rabr60 node_1 netRa60 -87921.69660529992
Lbr60 netRa60 netL60 2.8517469738082418e-11
Rbbr60 netL60 0 117574.69702014008
Cbr60 netL60 0 2.746254234178302e-21

* Branch 61
Rabr61 node_1 netRa61 -2758.6047807833684
Lbr61 netRa61 netL61 5.0768454724818796e-12
Rbbr61 netL61 0 11661.254537811003
Cbr61 netL61 0 1.5389958480575577e-19

* Branch 62
Rabr62 node_1 netRa62 3608.199795103456
Lbr62 netRa62 netL62 1.8275903073134565e-12
Rbbr62 netL62 0 -5734.463257883422
Cbr62 netL62 0 8.894540892214946e-20

* Branch 63
Rabr63 node_1 netRa63 4121.630245053233
Lbr63 netRa63 netL63 1.729159796507296e-12
Rbbr63 netL63 0 -5521.571763599154
Cbr63 netL63 0 7.641741068267683e-20

* Branch 64
Rabr64 node_1 netRa64 -646788.3706456515
Lbr64 netRa64 netL64 -3.439887645277958e-11
Rbbr64 netL64 0 648114.8554668574
Cbr64 netL64 0 -8.211717673884694e-23

* Branch 65
Rabr65 node_1 netRa65 299.30324748757573
Lbr65 netRa65 netL65 5.582858263359128e-13
Rbbr65 netL65 0 -2625.586990924519
Cbr65 netL65 0 7.280445183031181e-19

* Branch 66
Rabr66 node_1 netRa66 -1654.4923263232033
Lbr66 netRa66 netL66 1.1026065535940383e-12
Rbbr66 netL66 0 2975.900939229699
Cbr66 netL66 0 2.220622504806648e-19

* Branch 67
Rabr67 node_1 netRa67 -68613.84445567628
Lbr67 netRa67 netL67 -1.3565745075553794e-11
Rbbr67 netL67 0 70178.7104136802
Cbr67 netL67 0 -2.8242274960729374e-21

* Branch 68
Rabr68 node_1 netRa68 -306.2740252444531
Lbr68 netRa68 netL68 9.822211625529298e-13
Rbbr68 netL68 0 3524.837809453759
Cbr68 netL68 0 8.751824573200287e-19

* Branch 69
Rabr69 node_1 netRa69 27992.472773769015
Lbr69 netRa69 netL69 7.0787139435636524e-12
Rbbr69 netL69 0 -32376.482815303636
Cbr69 netL69 0 7.833553532313383e-21

* Branch 70
Rabr70 node_1 netRa70 -3147.5192021681337
Lbr70 netRa70 netL70 1.7543473916268218e-12
Rbbr70 netL70 0 4264.056312722721
Cbr70 netL70 0 1.2989226420599677e-19

* Branch 71
Rabr71 node_1 netRa71 -288.44971497413894
Lbr71 netRa71 netL71 8.470251659990217e-13
Rbbr71 netL71 0 4740.779220139339
Cbr71 netL71 0 5.994240796988328e-19

* Branch 72
Rabr72 node_1 netRa72 -6843.948324285896
Lbr72 netRa72 netL72 -5.2651218423799e-12
Rbbr72 netL72 0 9261.981052881341
Cbr72 netL72 0 -8.37041562149798e-20

* Branch 73
Rabr73 node_1 netRa73 -91358.42310207002
Lbr73 netRa73 netL73 8.7315590367256e-12
Rbbr73 netL73 0 93157.9989621604
Cbr73 netL73 0 1.0250296646418747e-21

* Branch 74
Rabr74 node_1 netRa74 1009.0203293234782
Lbr74 netRa74 netL74 8.751740485655757e-13
Rbbr74 netL74 0 -2445.340109674062
Cbr74 netL74 0 3.5756484811041946e-19

* Branch 75
Rabr75 node_1 netRa75 73792.98903068753
Lbr75 netRa75 netL75 -3.41089380585003e-11
Rbbr75 netL75 0 -90788.94974292065
Cbr75 netL75 0 -5.0697846830520264e-21

* Branch 76
Rabr76 node_1 netRa76 9053.064921250978
Lbr76 netRa76 netL76 2.8925432643462623e-12
Rbbr76 netL76 0 -10749.399032972593
Cbr76 netL76 0 2.9808919400144065e-20

* Branch 77
Rabr77 node_1 netRa77 -106835.2072796009
Lbr77 netRa77 netL77 1.5267868673151566e-11
Rbbr77 netL77 0 109270.23902604092
Cbr77 netL77 0 1.3061936162179833e-21

* Branch 78
Rabr78 node_1 netRa78 18287.40960103391
Lbr78 netRa78 netL78 -4.298746309609517e-12
Rbbr78 netL78 0 -20431.063398093807
Cbr78 netL78 0 -1.1489690912780342e-20

* Branch 79
Rabr79 node_1 netRa79 -237.03633715170267
Lbr79 netRa79 netL79 7.075827103931839e-13
Rbbr79 netL79 0 1841.6131843369715
Cbr79 netL79 0 1.5946468707612137e-18

* Branch 80
Rabr80 node_1 netRa80 -111542.99288386511
Lbr80 netRa80 netL80 -3.31570626780147e-11
Rbbr80 netL80 0 120285.60306327025
Cbr80 netL80 0 -2.4746091615804093e-21

* Branch 81
Rabr81 node_1 netRa81 504.2350908736966
Lbr81 netRa81 netL81 1.3741467242731394e-12
Rbbr81 netL81 0 -3532.9290118091612
Cbr81 netL81 0 7.805309270774924e-19

* Branch 82
Rabr82 node_1 netRa82 -4798.047606674113
Lbr82 netRa82 netL82 5.150872996261945e-12
Rbbr82 netL82 0 10340.728051307735
Cbr82 netL82 0 1.0334909085792359e-19

* Branch 83
Rabr83 node_1 netRa83 -396.0156383466338
Lbr83 netRa83 netL83 -5.837659281084559e-13
Rbbr83 netL83 0 1056.9463548959234
Cbr83 netL83 0 -1.4029413951994692e-18

* Branch 84
Rabr84 node_1 netRa84 -965.4915139931123
Lbr84 netRa84 netL84 1.992881487019154e-12
Rbbr84 netL84 0 4883.657801284634
Cbr84 netL84 0 4.192427997091575e-19

* Branch 85
Rabr85 node_1 netRa85 3290.800845604087
Lbr85 netRa85 netL85 -2.9265528575280903e-12
Rbbr85 netL85 0 -4785.737917684861
Cbr85 netL85 0 -1.8522882725218438e-19

* Branch 86
Rabr86 node_1 netRa86 605.306536640312
Lbr86 netRa86 netL86 3.1796857930429164e-12
Rbbr86 netL86 0 -14743.321736710837
Cbr86 netL86 0 3.6144468347092254e-19

* Branch 87
Rabr87 node_1 netRa87 -2368.6234665813354
Lbr87 netRa87 netL87 2.701338793533445e-12
Rbbr87 netL87 0 5564.232336150656
Cbr87 netL87 0 2.0445725547614257e-19

* Branch 88
Rabr88 node_1 netRa88 -123.60764123262216
Lbr88 netRa88 netL88 2.0643784155084733e-12
Rbbr88 netL88 0 32223.783434402005
Cbr88 netL88 0 5.177433499631307e-19

* Branch 89
Rabr89 node_1 netRa89 2517.8333510573516
Lbr89 netRa89 netL89 5.53212059185336e-12
Rbbr89 netL89 0 -13076.827986546066
Cbr89 netL89 0 1.6802228317522746e-19

* Branch 90
Rabr90 node_1 netRa90 649.5798299926325
Lbr90 netRa90 netL90 2.077814197826197e-12
Rbbr90 netL90 0 -6622.291026756326
Cbr90 netL90 0 4.832278279627673e-19

* Branch 91
Rabr91 node_1 netRa91 25134.060744343362
Lbr91 netRa91 netL91 5.1894018418779663e-11
Rbbr91 netL91 0 -72554.4943349116
Cbr91 netL91 0 2.848231375565605e-20

* Branch 92
Rabr92 node_1 netRa92 684.5834664431213
Lbr92 netRa92 netL92 -2.257577494057299e-12
Rbbr92 netL92 0 -4614.456481010133
Cbr92 netL92 0 -7.129723208911178e-19

* Branch 93
Rabr93 node_1 netRa93 1085.0906909213165
Lbr93 netRa93 netL93 -2.5099113693286366e-12
Rbbr93 netL93 0 -4265.982360849354
Cbr93 netL93 0 -5.405153445130858e-19

* Branch 94
Rabr94 node_1 netRa94 513.5716353140076
Lbr94 netRa94 netL94 -3.2609705988202728e-12
Rbbr94 netL94 0 -10846.661169576775
Cbr94 netL94 0 -5.791392936183597e-19

* Branch 95
Rabr95 node_1 netRa95 242.5879497903749
Lbr95 netRa95 netL95 -3.650435865172915e-12
Rbbr95 netL95 0 -25704.5808776694
Cbr95 netL95 0 -5.667624749194518e-19

* Branch 96
Rabr96 node_1 netRa96 254.19377071019727
Lbr96 netRa96 netL96 -3.6715152831432734e-12
Rbbr96 netL96 0 -23567.207800566244
Cbr96 netL96 0 -5.896912635294459e-19

* Branch 97
Rabr97 node_1 netRa97 7990.031200947222
Lbr97 netRa97 netL97 -1.7856971234302524e-12
Rbbr97 netL97 0 -9040.740601949528
Cbr97 netL97 0 -2.457689397823807e-20

* Branch 98
Rabr98 node_1 netRa98 -11539.073688878661
Lbr98 netRa98 netL98 1.0917132717723217e-11
Rbbr98 netL98 0 18280.933088231912
Cbr98 netL98 0 5.0103322436264375e-20

* Branch 99
Rabr99 node_1 netRa99 226.37305748538049
Lbr99 netRa99 netL99 -3.9366613323596333e-13
Rbbr99 netL99 0 -1789.79745392947
Cbr99 netL99 0 -6.341640074570584e-19

.ends


* Y'12
.subckt yp12 node_1 node_2
* Branch 0
Rabr0 node_1 netRa0 169808951.3172598
Lbr0 netRa0 netL0 4.479281388528496e-09
Rbbr0 netL0 node_2 -170001222.2893393
Cbr0 netL0 node_2 1.5785156359682692e-25

* Branch 1
Rabr1 node_1 netRa1 166567623.82609943
Lbr1 netRa1 netL1 4.143678367817688e-09
Rbbr1 netL1 node_2 -166738222.78163382
Cbr1 netL1 node_2 1.5153107916040185e-25

* Branch 2
Rabr2 node_1 netRa2 915730642.8564659
Lbr2 netRa2 netL2 -8.82286344127248e-09
Rbbr2 netL2 node_2 -915871159.0443059
Cbr2 netL2 node_2 -1.046296076086981e-26

* Branch 3
Rabr3 node_1 netRa3 26281771.411704186
Lbr3 netRa3 netL3 -1.3347204745095725e-09
Rbbr3 netL3 node_2 -26394251.011932455
Cbr3 netL3 node_2 -1.8774857987817946e-24

* Branch 4
Rabr4 node_1 netRa4 2044122.4010606175
Lbr4 netRa4 netL4 -3.2398116683481204e-10
Rbbr4 netL4 node_2 -2127915.285887631
Cbr4 netL4 node_2 -7.052441502798898e-23

* Branch 5
Rabr5 node_1 netRa5 301064.8942012801
Lbr5 netRa5 netL5 -9.342122306335802e-11
Rbbr5 netL5 node_2 -353435.41712570866
Cbr5 netL5 node_2 -8.647204443363676e-22

* Branch 6
Rabr6 node_1 netRa6 10210.58776740934
Lbr6 netRa6 netL6 7.035751259769162e-12
Rbbr6 netL6 node_2 -25908.340265988092
Cbr6 netL6 node_2 2.6950308530394606e-20

* Branch 7
Rabr7 node_1 netRa7 -1263.1804462822445
Lbr7 netRa7 netL7 3.994888457253101e-12
Rbbr7 netL7 node_2 39761.88426214638
Cbr7 netL7 node_2 7.510353279260003e-20

* Branch 8
Rabr8 node_1 netRa8 122643.86239589774
Lbr8 netRa8 netL8 -6.805075055557287e-11
Rbbr8 netL8 node_2 -183730.59225280964
Cbr8 netL8 node_2 -2.990715772655852e-21

* Branch 9
Rabr9 node_1 netRa9 8999.744476563445
Lbr9 netRa9 netL9 8.629773519041832e-12
Rbbr9 netL9 node_2 -34699.02241881427
Cbr9 netL9 node_2 2.8063579356263115e-20

* Branch 10
Rabr10 node_1 netRa10 112982.94352813651
Lbr10 netRa10 netL10 -4.771068353870332e-11
Rbbr10 netL10 node_2 -124237.3924518753
Cbr10 netL10 node_2 -3.37921506156419e-21

* Branch 11
Rabr11 node_1 netRa11 3269.6187604203474
Lbr11 netRa11 netL11 -1.3260043096387568e-11
Rbbr11 netL11 node_2 -28792.64717622359
Cbr11 netL11 node_2 -1.3335899670717273e-19

* Branch 12
Rabr12 node_1 netRa12 31645.927936333115
Lbr12 netRa12 netL12 2.246594390080263e-11
Rbbr12 netL12 node_2 -39421.03699795083
Cbr12 netL12 node_2 1.818387394023412e-20

* Branch 13
Rabr13 node_1 netRa13 -927.7944103522165
Lbr13 netRa13 netL13 1.279649273006556e-11
Rbbr13 netL13 node_2 81425.81509118291
Cbr13 netL13 node_2 1.4266398954093212e-19

* Branch 14
Rabr14 node_1 netRa14 655.2386663446703
Lbr14 netRa14 netL14 3.8236637571354825e-12
Rbbr14 netL14 node_2 -80332.14200894648
Cbr14 netL14 node_2 7.879979583814671e-20

* Branch 15
Rabr15 node_1 netRa15 -195949921.59082758
Lbr15 netRa15 netL15 1.9089064934523897e-09
Rbbr15 netL15 node_2 195959603.86798024
Cbr15 netL15 node_2 4.9706879918585425e-26

* Branch 16
Rabr16 node_1 netRa16 1676.3765517208458
Lbr16 netRa16 netL16 1.0803458841467192e-11
Rbbr16 netL16 node_2 -36888.99787875653
Cbr16 netL16 node_2 1.9067745790386845e-19

* Branch 17
Rabr17 node_1 netRa17 -16219.595809083636
Lbr17 netRa17 netL17 1.990277753660919e-11
Rbbr17 netL17 node_2 26913.200035857422
Cbr17 netL17 node_2 4.4880698644796613e-20

* Branch 18
Rabr18 node_1 netRa18 -3881.272721354793
Lbr18 netRa18 netL18 1.8605635982814637e-11
Rbbr18 netL18 node_2 54796.41084102967
Cbr18 netL18 node_2 8.247614342758465e-20

* Branch 19
Rabr19 node_1 netRa19 -49854.89670140304
Lbr19 netRa19 netL19 -4.626871109637935e-11
Rbbr19 netL19 node_2 68397.04503312052
Cbr19 netL19 node_2 -1.3725264738069545e-20

* Branch 20
Rabr20 node_1 netRa20 -6304.067354620804
Lbr20 netRa20 netL20 -1.1228370931002218e-11
Rbbr20 netL20 node_2 18227.252789362472
Cbr20 netL20 node_2 -9.980430074770153e-20

* Branch 21
Rabr21 node_1 netRa21 820.4538358075656
Lbr21 netRa21 netL21 3.825101781539649e-12
Rbbr21 netL21 node_2 -64139.70434237396
Cbr21 netL21 node_2 7.683424745744214e-20

* Branch 22
Rabr22 node_1 netRa22 329272.28737271944
Lbr22 netRa22 netL22 -9.023785045666763e-11
Rbbr22 netL22 node_2 -376756.54171136324
Cbr22 netL22 node_2 -7.251142026678774e-22

* Branch 23
Rabr23 node_1 netRa23 40243.91076986043
Lbr23 netRa23 netL23 -3.808469228290112e-11
Rbbr23 netL23 node_2 -70768.13492415102
Cbr23 netL23 node_2 -1.3229497748314076e-20

* Branch 24
Rabr24 node_1 netRa24 27719.503749673357
Lbr24 netRa24 netL24 1.1559004557021956e-11
Rbbr24 netL24 node_2 -41745.533788597895
Cbr24 netL24 node_2 1.003368419420715e-20

* Branch 25
Rabr25 node_1 netRa25 -17228.712771515755
Lbr25 netRa25 netL25 -4.735444978717804e-11
Rbbr25 netL25 node_2 145395.28270625524
Cbr25 netL25 node_2 -1.9467849331751542e-20

* Branch 26
Rabr26 node_1 netRa26 -18657.646716775143
Lbr26 netRa26 netL26 -3.6253820793073687e-11
Rbbr26 netL26 node_2 69684.96690168076
Cbr26 netL26 node_2 -2.8417158937973924e-20

* Branch 27
Rabr27 node_1 netRa27 -11752.727985018813
Lbr27 netRa27 netL27 -2.9073677540468922e-11
Rbbr27 netL27 node_2 61536.61027587581
Cbr27 netL27 node_2 -4.1150107387507435e-20

* Branch 28
Rabr28 node_1 netRa28 413.43777761521534
Lbr28 netRa28 netL28 4.007937728751795e-12
Rbbr28 netL28 node_2 -146278.30865559753
Cbr28 netL28 node_2 7.260594561198036e-20

* Branch 29
Rabr29 node_1 netRa29 -27569.34198560533
Lbr29 netRa29 netL29 -3.2454309317462925e-11
Rbbr29 netL29 node_2 52530.40106046663
Cbr29 netL29 node_2 -2.2640698508745934e-20

* Branch 30
Rabr30 node_1 netRa30 75923.5481053151
Lbr30 netRa30 netL30 -5.886382074139075e-11
Rbbr30 netL30 node_2 -144505.08231729036
Cbr30 netL30 node_2 -5.3322206823999756e-21

* Branch 31
Rabr31 node_1 netRa31 1248320.263938297
Lbr31 netRa31 netL31 9.761587607365594e-11
Rbbr31 netL31 node_2 -1268507.3351136844
Cbr31 netL31 node_2 6.168308816069327e-23

* Branch 32
Rabr32 node_1 netRa32 4879.29797383358
Lbr32 netRa32 netL32 4.403436442814524e-12
Rbbr32 netL32 node_2 -17452.66975096981
Cbr32 netL32 node_2 5.20617181215237e-20

* Branch 33
Rabr33 node_1 netRa33 -1260.7097765759163
Lbr33 netRa33 netL33 3.46278011655018e-12
Rbbr33 netL33 node_2 33909.73540521138
Cbr33 netL33 node_2 7.94966092591838e-20

* Branch 34
Rabr34 node_1 netRa34 3803.3215568091873
Lbr34 netRa34 netL34 3.9118638062161145e-12
Rbbr34 netL34 node_2 -16289.485670563245
Cbr34 netL34 node_2 6.355780405488456e-20

* Branch 35
Rabr35 node_1 netRa35 -29975.40003144745
Lbr35 netRa35 netL35 -4.6663012547127104e-11
Rbbr35 netL35 node_2 107994.51811109913
Cbr35 netL35 node_2 -1.4558832625976287e-20

* Branch 36
Rabr36 node_1 netRa36 47723.806692038655
Lbr36 netRa36 netL36 -5.324874531301988e-11
Rbbr36 netL36 node_2 -130576.54544776872
Cbr36 netL36 node_2 -8.485046590092343e-21

* Branch 37
Rabr37 node_1 netRa37 -2193983.6095282575
Lbr37 netRa37 netL37 -1.74127348395648e-10
Rbbr37 netL37 node_2 2204733.70513981
Cbr37 netL37 node_2 -3.6015196065789706e-23

* Branch 38
Rabr38 node_1 netRa38 23418.35527261634
Lbr38 netRa38 netL38 -4.610330880186845e-11
Rbbr38 netL38 node_2 -139029.3071975478
Cbr38 netL38 node_2 -1.4015834147168468e-20

* Branch 39
Rabr39 node_1 netRa39 1454952.410589981
Lbr39 netRa39 netL39 -1.509607694069948e-10
Rbbr39 netL39 node_2 -1490215.0975636337
Cbr39 netL39 node_2 -6.958762999211678e-23

* Branch 40
Rabr40 node_1 netRa40 733497.515103407
Lbr40 netRa40 netL40 -1.161555416444788e-10
Rbbr40 netL40 node_2 -772761.4234045654
Cbr40 netL40 node_2 -2.047603418118933e-22

* Branch 41
Rabr41 node_1 netRa41 24682002.13966927
Lbr41 netRa41 netL41 4.924545871774469e-10
Rbbr41 netL41 node_2 -24706972.072812617
Cbr41 netL41 node_2 8.076248404590255e-25

* Branch 42
Rabr42 node_1 netRa42 28987.111632984546
Lbr42 netRa42 netL42 1.322231604298157e-11
Rbbr42 netL42 node_2 -45438.890078541524
Cbr42 netL42 node_2 1.0061103363983317e-20

* Branch 43
Rabr43 node_1 netRa43 -18821.780189149827
Lbr43 netRa43 netL43 1.3652128125011883e-11
Rbbr43 netL43 node_2 27460.529124832246
Cbr43 netL43 node_2 2.6335264562996668e-20

* Branch 44
Rabr44 node_1 netRa44 3672.0796058433566
Lbr44 netRa44 netL44 8.499265097784467e-12
Rbbr44 netL44 node_2 -22308.64080854959
Cbr44 netL44 node_2 1.0473450549645599e-19

* Branch 45
Rabr45 node_1 netRa45 171998.16285050262
Lbr45 netRa45 netL45 -7.33960457959008e-11
Rbbr45 netL45 node_2 -226448.19214846747
Cbr45 netL45 node_2 -1.8812888584332258e-21

* Branch 46
Rabr46 node_1 netRa46 9524.609426221443
Lbr46 netRa46 netL46 1.1107110734616982e-11
Rbbr46 netL46 node_2 -20376.047584795782
Cbr46 netL46 node_2 5.744747352658171e-20

* Branch 47
Rabr47 node_1 netRa47 197921.08977372074
Lbr47 netRa47 netL47 -4.038347914013548e-11
Rbbr47 netL47 node_2 -204181.6456184265
Cbr47 netL47 node_2 -9.98739808213303e-22

* Branch 48
Rabr48 node_1 netRa48 3339926.1212129835
Lbr48 netRa48 netL48 -2.1006869118479978e-10
Rbbr48 netL48 node_2 -3371117.2021075683
Cbr48 netL48 node_2 -1.865424598400655e-23

* Branch 49
Rabr49 node_1 netRa49 -5554.423747770516
Lbr49 netRa49 netL49 1.4439355630470783e-11
Rbbr49 netL49 node_2 39364.084233649315
Cbr49 netL49 node_2 6.563587969435999e-20

* Branch 50
Rabr50 node_1 netRa50 -1215.3765694825559
Lbr50 netRa50 netL50 9.991875431828072e-12
Rbbr50 netL50 node_2 85685.59390981618
Cbr50 netL50 node_2 9.415325047117502e-20

* Branch 51
Rabr51 node_1 netRa51 -494.37419759804607
Lbr51 netRa51 netL51 1.7819116577261115e-11
Rbbr51 netL51 node_2 478763.16502422397
Cbr51 netL51 node_2 6.962059979107642e-20

* Branch 52
Rabr52 node_1 netRa52 -43588.526296664386
Lbr52 netRa52 netL52 1.9023315306397393e-11
Rbbr52 netL52 node_2 51710.295420965
Cbr52 netL52 node_2 8.43421368384126e-21

* Branch 53
Rabr53 node_1 netRa53 3655.4338964957974
Lbr53 netRa53 netL53 -4.080133881661546e-11
Rbbr53 netL53 node_2 -532967.7572676779
Cbr53 netL53 node_2 -2.0664633716613762e-20

* Branch 54
Rabr54 node_1 netRa54 156291.08506668426
Lbr54 netRa54 netL54 -7.874120346110147e-11
Rbbr54 netL54 node_2 -181050.41480188604
Cbr54 netL54 node_2 -2.781183192551519e-21

* Branch 55
Rabr55 node_1 netRa55 -55044.80947021395
Lbr55 netRa55 netL55 2.959572672936781e-11
Rbbr55 netL55 node_2 71149.96909287352
Cbr55 netL55 node_2 7.55347430538843e-21

* Branch 56
Rabr56 node_1 netRa56 67045.39755428776
Lbr56 netRa56 netL56 -5.380647789634709e-11
Rbbr56 netL56 node_2 -97811.53652859855
Cbr56 netL56 node_2 -8.204274286122315e-21

* Branch 57
Rabr57 node_1 netRa57 -21533.838556288636
Lbr57 netRa57 netL57 -4.42640981081652e-11
Rbbr57 netL57 node_2 80926.43644671506
Cbr57 netL57 node_2 -2.5403637782670502e-20

* Branch 58
Rabr58 node_1 netRa58 -1925.4216977869382
Lbr58 netRa58 netL58 -4.507316940334605e-11
Rbbr58 netL58 node_2 722442.127296396
Cbr58 netL58 node_2 -3.243970899831925e-20

* Branch 59
Rabr59 node_1 netRa59 -2094563.8374034017
Lbr59 netRa59 netL59 1.4608317217593601e-10
Rbbr59 netL59 node_2 2105633.4265085654
Cbr59 netL59 node_2 3.3122474823535196e-23

* Branch 60
Rabr60 node_1 netRa60 70308.94308526626
Lbr60 netRa60 netL60 1.5162206753120544e-11
Rbbr60 netL60 node_2 -79209.73792622656
Cbr60 netL60 node_2 2.7225504680284423e-21

* Branch 61
Rabr61 node_1 netRa61 1817172.6660893685
Lbr61 netRa61 netL61 1.7807701351593705e-10
Rbbr61 netL61 node_2 -1858767.4721108952
Cbr61 netL61 node_2 5.272142762374596e-23

* Branch 62
Rabr62 node_1 netRa62 142263.23170495036
Lbr62 netRa62 netL62 2.71802237714685e-11
Rbbr62 netL62 node_2 -157039.90807843968
Cbr62 netL62 node_2 1.2166103575125199e-21

* Branch 63
Rabr63 node_1 netRa63 696650.5193133559
Lbr63 netRa63 netL63 1.3568708850122396e-10
Rbbr63 netL63 node_2 -758194.2219739226
Cbr63 netL63 node_2 2.5689068976485382e-22

* Branch 64
Rabr64 node_1 netRa64 569783.9610679746
Lbr64 netRa64 netL64 1.4263373832247316e-10
Rbbr64 netL64 node_2 -645294.924186664
Cbr64 netL64 node_2 3.879370978796793e-22

* Branch 65
Rabr65 node_1 netRa65 505140.79082142893
Lbr65 netRa65 netL65 1.0237292915125013e-10
Rbbr65 netL65 node_2 -556923.1649724812
Cbr65 netL65 node_2 3.639015099124991e-22

* Branch 66
Rabr66 node_1 netRa66 497898.9054102991
Lbr66 netRa66 netL66 1.3372621539114195e-10
Rbbr66 netL66 node_2 -571992.0168950477
Cbr66 netL66 node_2 4.695632178880182e-22

* Branch 67
Rabr67 node_1 netRa67 469608.03644676716
Lbr67 netRa67 netL67 1.3135463016286327e-10
Rbbr67 netL67 node_2 -541660.669590043
Cbr67 netL67 node_2 5.164064197953828e-22

* Branch 68
Rabr68 node_1 netRa68 345388.4666085766
Lbr68 netRa68 netL68 1.1631594462691056e-10
Rbbr68 netL68 node_2 -420252.28372208046
Cbr68 netL68 node_2 8.013688035493409e-22

* Branch 69
Rabr69 node_1 netRa69 444976.7878646631
Lbr69 netRa69 netL69 1.2630159757738905e-10
Rbbr69 netL69 node_2 -517094.82816912804
Cbr69 netL69 node_2 5.489221080600681e-22

* Branch 70
Rabr70 node_1 netRa70 367325.95956712397
Lbr70 netRa70 netL70 1.2827398726024627e-10